version 2
1
1
.ac dec 1000 1 10G{return}.kicad adjustpaths{return}.save all{return}.probe alli
4
9
V(5VS)
 
5
V(5VS)
 
9
V(Net-_D2-A_)
 
5
V(Net-_D2-A_)
 
